Note: can't find init file.

Circuit: ** Operational Amplifier (AC): Benchmarking Implementation of BSIM4 by Jane Xi 05/09/2003.

Circuit: ** Operational Amplifier (AC): Benchmarking Implementation of BSIM4 by Jane Xi 05/09/2003.
Date: Fri Jul 29 12:44:14  2005


** Operational Amplifier (AC): Benchmarking Implementation of BSIM4 by Jane Xi 05/09/2003.
AC Analysis  Fri Jul 29 12:44:14  2005
--------------------------------------------------------------------------------
Index   frequency                       db(v(8))        
--------------------------------------------------------------------------------
0	1.000000e+02,	0.000000e+00	5.417092e+00	
1	1.258925e+02,	0.000000e+00	5.417093e+00	
2	1.584893e+02,	0.000000e+00	5.417093e+00	
3	1.995262e+02,	0.000000e+00	5.417094e+00	
4	2.511886e+02,	0.000000e+00	5.417096e+00	
5	3.162278e+02,	0.000000e+00	5.417098e+00	
6	3.981072e+02,	0.000000e+00	5.417102e+00	
7	5.011872e+02,	0.000000e+00	5.417109e+00	
8	6.309573e+02,	0.000000e+00	5.417119e+00	
9	7.943282e+02,	0.000000e+00	5.417135e+00	
10	1.000000e+03,	0.000000e+00	5.417160e+00	
11	1.258925e+03,	0.000000e+00	5.417200e+00	
12	1.584893e+03,	0.000000e+00	5.417263e+00	
13	1.995262e+03,	0.000000e+00	5.417362e+00	
14	2.511886e+03,	0.000000e+00	5.417518e+00	
15	3.162278e+03,	0.000000e+00	5.417761e+00	
16	3.981072e+03,	0.000000e+00	5.418136e+00	
17	5.011872e+03,	0.000000e+00	5.418707e+00	
18	6.309573e+03,	0.000000e+00	5.419559e+00	
19	7.943282e+03,	0.000000e+00	5.420786e+00	
20	1.000000e+04,	0.000000e+00	5.422473e+00	
21	1.258925e+04,	0.000000e+00	5.424641e+00	
22	1.584893e+04,	0.000000e+00	5.427183e+00	
23	1.995262e+04,	0.000000e+00	5.429824e+00	
24	2.511886e+04,	0.000000e+00	5.432149e+00	
25	3.162278e+04,	0.000000e+00	5.433693e+00	
26	3.981072e+04,	0.000000e+00	5.434006e+00	
27	5.011872e+04,	0.000000e+00	5.432629e+00	
28	6.309573e+04,	0.000000e+00	5.428956e+00	
29	7.943282e+04,	0.000000e+00	5.422045e+00	
30	1.000000e+05,	0.000000e+00	5.410346e+00	
31	1.258925e+05,	0.000000e+00	5.391356e+00	
32	1.584893e+05,	0.000000e+00	5.361089e+00	
33	1.995262e+05,	0.000000e+00	5.313332e+00	
34	2.511886e+05,	0.000000e+00	5.238565e+00	
35	3.162278e+05,	0.000000e+00	5.122557e+00	
36	3.981072e+05,	0.000000e+00	4.944768e+00	
37	5.011872e+05,	0.000000e+00	4.677072e+00	
38	6.309573e+05,	0.000000e+00	4.283942e+00	
39	7.943282e+05,	0.000000e+00	3.725706e+00	
40	1.000000e+06,	0.000000e+00	2.965980e+00	
41	1.258925e+06,	0.000000e+00	1.981813e+00	
42	1.584893e+06,	0.000000e+00	7.716395e-01	
43	1.995262e+06,	0.000000e+00	-6.441117e-01	
44	2.511886e+06,	0.000000e+00	-2.230209e+00	
45	3.162278e+06,	0.000000e+00	-3.946791e+00	
46	3.981072e+06,	0.000000e+00	-5.757312e+00	
47	5.011872e+06,	0.000000e+00	-7.632312e+00	
48	6.309573e+06,	0.000000e+00	-9.549860e+00	
49	7.943282e+06,	0.000000e+00	-1.149431e+01	
50	1.000000e+07,	0.000000e+00	-1.345458e+01	
51	1.258925e+07,	0.000000e+00	-1.542247e+01	
52	1.584893e+07,	0.000000e+00	-1.739126e+01	
53	1.995262e+07,	0.000000e+00	-1.935438e+01	
54	2.511886e+07,	0.000000e+00	-2.130419e+01	

Index   frequency                       db(v(8))        
--------------------------------------------------------------------------------
55	3.162278e+07,	0.000000e+00	-2.323061e+01	
56	3.981072e+07,	0.000000e+00	-2.511952e+01	
57	5.011872e+07,	0.000000e+00	-2.695110e+01	
58	6.309573e+07,	0.000000e+00	-2.869854e+01	
59	7.943282e+07,	0.000000e+00	-3.032810e+01	
60	1.000000e+08,	0.000000e+00	-3.180230e+01	

CPU time since last call: 0.260 seconds.

Total CPU time: 0.260 seconds.

Current dynamic memory usage = 393216,
Dynamic memory limit = -18809392.

