Note: can't find init file.

Circuit: ** NMOSFET: Benchmarking Implementation of BSIM4 by Jane Xi 05/09/2003.

Circuit: ** NMOSFET: Benchmarking Implementation of BSIM4 by Jane Xi 05/09/2003.
Date: Fri Jul 29 12:44:06  2005


    ** NMOSFET: Benchmarking Implementation of BSIM4 by Jane Xi 05/09/2003.
    DC transfer characteristic  Fri Jul 29 12:44:06  2005
--------------------------------------------------------------------------------
Index   sweep           vds#branch      
--------------------------------------------------------------------------------
0	0.000000e+00	1.872791e-11	
1	2.000000e-02	-9.001365e-07	
2	4.000000e-02	-1.300732e-06	
3	6.000000e-02	-1.460864e-06	
4	8.000000e-02	-1.539565e-06	
5	1.000000e-01	-1.591787e-06	
6	1.200000e-01	-1.633983e-06	
7	1.400000e-01	-1.671689e-06	
8	1.600000e-01	-1.707101e-06	
9	1.800000e-01	-1.741221e-06	
10	2.000000e-01	-1.774563e-06	
11	2.200000e-01	-1.807414e-06	
12	2.400000e-01	-1.839947e-06	
13	2.600000e-01	-1.872271e-06	
14	2.800000e-01	-1.904460e-06	
15	3.000000e-01	-1.936564e-06	
16	3.200000e-01	-1.968620e-06	
17	3.400000e-01	-2.000653e-06	
18	3.600000e-01	-2.032684e-06	
19	3.800000e-01	-2.064728e-06	
20	4.000000e-01	-2.096797e-06	
21	4.200000e-01	-2.128900e-06	
22	4.400000e-01	-2.161044e-06	
23	4.600000e-01	-2.193236e-06	
24	4.800000e-01	-2.225479e-06	
25	5.000000e-01	-2.257779e-06	
26	5.200000e-01	-2.290138e-06	
27	5.400000e-01	-2.322559e-06	
28	5.600000e-01	-2.355044e-06	
29	5.800000e-01	-2.387596e-06	
30	6.000000e-01	-2.420216e-06	
31	6.200000e-01	-2.452905e-06	
32	6.400000e-01	-2.485665e-06	
33	6.600000e-01	-2.518497e-06	
34	6.800000e-01	-2.551401e-06	
35	7.000000e-01	-2.584380e-06	
36	7.200000e-01	-2.617434e-06	
37	7.400000e-01	-2.650563e-06	
38	7.600000e-01	-2.683770e-06	
39	7.800000e-01	-2.717054e-06	
40	8.000000e-01	-2.750417e-06	
41	8.200000e-01	-2.783861e-06	
42	8.400000e-01	-2.817386e-06	
43	8.600000e-01	-2.850994e-06	
44	8.800000e-01	-2.884687e-06	
45	9.000000e-01	-2.918466e-06	
46	9.200000e-01	-2.952334e-06	
47	9.400000e-01	-2.986292e-06	
48	9.600000e-01	-3.020344e-06	
49	9.800000e-01	-3.054493e-06	
50	1.000000e+00	-3.088741e-06	
51	1.020000e+00	-3.123091e-06	
52	1.040000e+00	-3.157549e-06	
53	1.060000e+00	-3.192119e-06	
54	1.080000e+00	-3.226804e-06	

Index   sweep           vds#branch      
--------------------------------------------------------------------------------
55	1.100000e+00	-3.261611e-06	
56	1.120000e+00	-3.296546e-06	
57	1.140000e+00	-3.331615e-06	
58	1.160000e+00	-3.366826e-06	
59	1.180000e+00	-3.402188e-06	
60	0.000000e+00	1.402024e-09	
61	2.000000e-02	-3.760654e-05	
62	4.000000e-02	-6.301018e-05	
63	6.000000e-02	-7.830600e-05	
64	8.000000e-02	-8.662375e-05	
65	1.000000e-01	-9.116420e-05	
66	1.200000e-01	-9.398140e-05	
67	1.400000e-01	-9.602916e-05	
68	1.600000e-01	-9.770643e-05	
69	1.800000e-01	-9.918657e-05	
70	2.000000e-01	-1.005518e-04	
71	2.200000e-01	-1.018449e-04	
72	2.400000e-01	-1.030900e-04	
73	2.600000e-01	-1.043018e-04	
74	2.800000e-01	-1.054896e-04	
75	3.000000e-01	-1.066598e-04	
76	3.200000e-01	-1.078165e-04	
77	3.400000e-01	-1.089631e-04	
78	3.600000e-01	-1.101018e-04	
79	3.800000e-01	-1.112343e-04	
80	4.000000e-01	-1.123621e-04	
81	4.200000e-01	-1.134862e-04	
82	4.400000e-01	-1.146074e-04	
83	4.600000e-01	-1.157263e-04	
84	4.800000e-01	-1.168437e-04	
85	5.000000e-01	-1.179597e-04	
86	5.200000e-01	-1.190750e-04	
87	5.400000e-01	-1.201897e-04	
88	5.600000e-01	-1.213042e-04	
89	5.800000e-01	-1.224185e-04	
90	6.000000e-01	-1.235330e-04	
91	6.200000e-01	-1.246478e-04	
92	6.400000e-01	-1.257631e-04	
93	6.600000e-01	-1.268788e-04	
94	6.800000e-01	-1.279952e-04	
95	7.000000e-01	-1.291123e-04	
96	7.200000e-01	-1.302302e-04	
97	7.400000e-01	-1.313490e-04	
98	7.600000e-01	-1.324687e-04	
99	7.800000e-01	-1.335894e-04	
100	8.000000e-01	-1.347111e-04	
101	8.200000e-01	-1.358339e-04	
102	8.400000e-01	-1.369579e-04	
103	8.600000e-01	-1.380829e-04	
104	8.800000e-01	-1.392092e-04	
105	9.000000e-01	-1.403368e-04	
106	9.200000e-01	-1.414656e-04	
107	9.400000e-01	-1.425957e-04	
108	9.600000e-01	-1.437272e-04	
109	9.800000e-01	-1.448601e-04	
110	1.000000e+00	-1.459945e-04	
111	1.020000e+00	-1.471304e-04	
112	1.040000e+00	-1.482679e-04	

Index   sweep           vds#branch      
--------------------------------------------------------------------------------
113	1.060000e+00	-1.494070e-04	
114	1.080000e+00	-1.505478e-04	
115	1.100000e+00	-1.516904e-04	
116	1.120000e+00	-1.528348e-04	
117	1.140000e+00	-1.539811e-04	
118	1.160000e+00	-1.551294e-04	
119	1.180000e+00	-1.562798e-04	
120	0.000000e+00	9.163324e-09	
121	2.000000e-02	-1.713831e-04	
122	4.000000e-02	-3.206912e-04	
123	6.000000e-02	-4.488402e-04	
124	8.000000e-02	-5.567867e-04	
125	1.000000e-01	-6.455853e-04	
126	1.200000e-01	-7.165080e-04	
127	1.400000e-01	-7.712321e-04	
128	1.600000e-01	-8.120402e-04	
129	1.800000e-01	-8.418201e-04	
130	2.000000e-01	-8.636504e-04	
131	2.200000e-01	-8.801848e-04	
132	2.400000e-01	-8.933245e-04	
133	2.600000e-01	-9.042819e-04	
134	2.800000e-01	-9.137956e-04	
135	3.000000e-01	-9.223171e-04	
136	3.200000e-01	-9.301304e-04	
137	3.400000e-01	-9.374208e-04	
138	3.600000e-01	-9.443142e-04	
139	3.800000e-01	-9.508986e-04	
140	4.000000e-01	-9.572378e-04	
141	4.200000e-01	-9.633791e-04	
142	4.400000e-01	-9.693582e-04	
143	4.600000e-01	-9.752030e-04	
144	4.800000e-01	-9.809351e-04	
145	5.000000e-01	-9.865717e-04	
146	5.200000e-01	-9.921269e-04	
147	5.400000e-01	-9.976120e-04	
148	5.600000e-01	-1.003036e-03	
149	5.800000e-01	-1.008408e-03	
150	6.000000e-01	-1.013733e-03	
151	6.200000e-01	-1.019017e-03	
152	6.400000e-01	-1.024264e-03	
153	6.600000e-01	-1.029479e-03	
154	6.800000e-01	-1.034665e-03	
155	7.000000e-01	-1.039825e-03	
156	7.200000e-01	-1.044961e-03	
157	7.400000e-01	-1.050077e-03	
158	7.600000e-01	-1.055172e-03	
159	7.800000e-01	-1.060250e-03	
160	8.000000e-01	-1.065312e-03	
161	8.200000e-01	-1.070359e-03	
162	8.400000e-01	-1.075393e-03	
163	8.600000e-01	-1.080414e-03	
164	8.800000e-01	-1.085424e-03	
165	9.000000e-01	-1.090422e-03	
166	9.200000e-01	-1.095411e-03	
167	9.400000e-01	-1.100392e-03	
168	9.600000e-01	-1.105363e-03	
169	9.800000e-01	-1.110327e-03	
170	1.000000e+00	-1.115285e-03	

Index   sweep           vds#branch      
--------------------------------------------------------------------------------
171	1.020000e+00	-1.120235e-03	
172	1.040000e+00	-1.125181e-03	
173	1.060000e+00	-1.130121e-03	
174	1.080000e+00	-1.135056e-03	
175	1.100000e+00	-1.139988e-03	
176	1.120000e+00	-1.144916e-03	
177	1.140000e+00	-1.149842e-03	
178	1.160000e+00	-1.154766e-03	
179	1.180000e+00	-1.159688e-03	
180	0.000000e+00	3.945370e-08	
181	2.000000e-02	-2.844982e-04	
182	4.000000e-02	-5.468618e-04	
183	6.000000e-02	-7.877205e-04	
184	8.000000e-02	-1.007726e-03	
185	1.000000e-01	-1.207515e-03	
186	1.200000e-01	-1.387721e-03	
187	1.400000e-01	-1.548975e-03	
188	1.600000e-01	-1.691932e-03	
189	1.800000e-01	-1.817288e-03	
190	2.000000e-01	-1.925820e-03	
191	2.200000e-01	-2.018451e-03	
192	2.400000e-01	-2.096330e-03	
193	2.600000e-01	-2.160909e-03	
194	2.800000e-01	-2.213973e-03	
195	3.000000e-01	-2.257539e-03	
196	3.200000e-01	-2.293632e-03	
197	3.400000e-01	-2.324043e-03	
198	3.600000e-01	-2.350203e-03	
199	3.800000e-01	-2.373180e-03	
200	4.000000e-01	-2.393744e-03	
201	4.200000e-01	-2.412448e-03	
202	4.400000e-01	-2.429692e-03	
203	4.600000e-01	-2.445771e-03	
204	4.800000e-01	-2.460905e-03	
205	5.000000e-01	-2.475263e-03	
206	5.200000e-01	-2.488977e-03	
207	5.400000e-01	-2.502149e-03	
208	5.600000e-01	-2.514861e-03	
209	5.800000e-01	-2.527181e-03	
210	6.000000e-01	-2.539162e-03	
211	6.200000e-01	-2.550849e-03	
212	6.400000e-01	-2.562280e-03	
213	6.600000e-01	-2.573484e-03	
214	6.800000e-01	-2.584489e-03	
215	7.000000e-01	-2.595317e-03	
216	7.200000e-01	-2.605986e-03	
217	7.400000e-01	-2.616513e-03	
218	7.600000e-01	-2.626912e-03	
219	7.800000e-01	-2.637195e-03	
220	8.000000e-01	-2.647372e-03	
221	8.200000e-01	-2.657452e-03	
222	8.400000e-01	-2.667445e-03	
223	8.600000e-01	-2.677356e-03	
224	8.800000e-01	-2.687192e-03	
225	9.000000e-01	-2.696959e-03	
226	9.200000e-01	-2.706662e-03	
227	9.400000e-01	-2.716305e-03	
228	9.600000e-01	-2.725892e-03	

Index   sweep           vds#branch      
--------------------------------------------------------------------------------
229	9.800000e-01	-2.735427e-03	
230	1.000000e+00	-2.744913e-03	
231	1.020000e+00	-2.754354e-03	
232	1.040000e+00	-2.763752e-03	
233	1.060000e+00	-2.773109e-03	
234	1.080000e+00	-2.782428e-03	
235	1.100000e+00	-2.791712e-03	
236	1.120000e+00	-2.800962e-03	
237	1.140000e+00	-2.810182e-03	
238	1.160000e+00	-2.819371e-03	
239	1.180000e+00	-2.828534e-03	
240	0.000000e+00	1.383106e-07	
241	2.000000e-02	-3.558128e-04	
242	4.000000e-02	-6.917360e-04	
243	6.000000e-02	-1.008112e-03	
244	8.000000e-02	-1.305410e-03	
245	1.000000e-01	-1.584087e-03	
246	1.200000e-01	-1.844592e-03	
247	1.400000e-01	-2.087366e-03	
248	1.600000e-01	-2.312841e-03	
249	1.800000e-01	-2.521450e-03	
250	2.000000e-01	-2.713625e-03	
251	2.200000e-01	-2.889803e-03	
252	2.400000e-01	-3.050437e-03	
253	2.600000e-01	-3.196004e-03	
254	2.800000e-01	-3.327026e-03	
255	3.000000e-01	-3.444087e-03	
256	3.200000e-01	-3.547869e-03	
257	3.400000e-01	-3.639187e-03	
258	3.600000e-01	-3.719023e-03	
259	3.800000e-01	-3.788536e-03	
260	4.000000e-01	-3.849031e-03	
261	4.200000e-01	-3.901864e-03	
262	4.400000e-01	-3.948344e-03	
263	4.600000e-01	-3.989631e-03	
264	4.800000e-01	-4.026698e-03	
265	5.000000e-01	-4.060332e-03	
266	5.200000e-01	-4.091154e-03	
267	5.400000e-01	-4.119655e-03	
268	5.600000e-01	-4.146223e-03	
269	5.800000e-01	-4.171167e-03	
270	6.000000e-01	-4.194736e-03	
271	6.200000e-01	-4.217131e-03	
272	6.400000e-01	-4.238517e-03	
273	6.600000e-01	-4.259030e-03	
274	6.800000e-01	-4.278784e-03	
275	7.000000e-01	-4.297873e-03	
276	7.200000e-01	-4.316378e-03	
277	7.400000e-01	-4.334365e-03	
278	7.600000e-01	-4.351893e-03	
279	7.800000e-01	-4.369011e-03	
280	8.000000e-01	-4.385761e-03	
281	8.200000e-01	-4.402180e-03	
282	8.400000e-01	-4.418300e-03	
283	8.600000e-01	-4.434149e-03	
284	8.800000e-01	-4.449750e-03	
285	9.000000e-01	-4.465126e-03	
286	9.200000e-01	-4.480294e-03	

Index   sweep           vds#branch      
--------------------------------------------------------------------------------
287	9.400000e-01	-4.495272e-03	
288	9.600000e-01	-4.510074e-03	
289	9.800000e-01	-4.524714e-03	
290	1.000000e+00	-4.539202e-03	
291	1.020000e+00	-4.553551e-03	
292	1.040000e+00	-4.567768e-03	
293	1.060000e+00	-4.581862e-03	
294	1.080000e+00	-4.595842e-03	
295	1.100000e+00	-4.609714e-03	
296	1.120000e+00	-4.623485e-03	
297	1.140000e+00	-4.637161e-03	
298	1.160000e+00	-4.650747e-03	
299	1.180000e+00	-4.664248e-03	
300	0.000000e+00	4.305622e-07	
301	2.000000e-02	-3.982514e-04	
302	4.000000e-02	-7.793893e-04	
303	6.000000e-02	-1.143326e-03	
304	8.000000e-02	-1.490399e-03	
305	1.000000e-01	-1.820941e-03	
306	1.200000e-01	-2.135275e-03	
307	1.400000e-01	-2.433722e-03	
308	1.600000e-01	-2.716594e-03	
309	1.800000e-01	-2.984201e-03	
310	2.000000e-01	-3.236851e-03	
311	2.200000e-01	-3.474847e-03	
312	2.400000e-01	-3.698495e-03	
313	2.600000e-01	-3.908099e-03	
314	2.800000e-01	-4.103970e-03	
315	3.000000e-01	-4.286425e-03	
316	3.200000e-01	-4.455795e-03	
317	3.400000e-01	-4.612428e-03	
318	3.600000e-01	-4.756699e-03	
319	3.800000e-01	-4.889021e-03	
320	4.000000e-01	-5.009858e-03	
321	4.200000e-01	-5.119738e-03	
322	4.400000e-01	-5.219275e-03	
323	4.600000e-01	-5.309173e-03	
324	4.800000e-01	-5.390231e-03	
325	5.000000e-01	-5.463322e-03	
326	5.200000e-01	-5.529353e-03	
327	5.400000e-01	-5.589217e-03	
328	5.600000e-01	-5.643750e-03	
329	5.800000e-01	-5.693702e-03	
330	6.000000e-01	-5.739721e-03	
331	6.200000e-01	-5.782363e-03	
332	6.400000e-01	-5.822096e-03	
333	6.600000e-01	-5.859316e-03	
334	6.800000e-01	-5.894355e-03	
335	7.000000e-01	-5.927495e-03	
336	7.200000e-01	-5.958975e-03	
337	7.400000e-01	-5.988996e-03	
338	7.600000e-01	-6.017733e-03	
339	7.800000e-01	-6.045333e-03	
340	8.000000e-01	-6.071924e-03	
341	8.200000e-01	-6.097614e-03	
342	8.400000e-01	-6.122499e-03	
343	8.600000e-01	-6.146661e-03	
344	8.800000e-01	-6.170171e-03	

Index   sweep           vds#branch      
--------------------------------------------------------------------------------
345	9.000000e-01	-6.193092e-03	
346	9.200000e-01	-6.215479e-03	
347	9.400000e-01	-6.237380e-03	
348	9.600000e-01	-6.258837e-03	
349	9.800000e-01	-6.279888e-03	
350	1.000000e+00	-6.300566e-03	
351	1.020000e+00	-6.320901e-03	
352	1.040000e+00	-6.340918e-03	
353	1.060000e+00	-6.360642e-03	
354	1.080000e+00	-6.380093e-03	
355	1.100000e+00	-6.399291e-03	
356	1.120000e+00	-6.418252e-03	
357	1.140000e+00	-6.436993e-03	
358	1.160000e+00	-6.455526e-03	
359	1.180000e+00	-6.473865e-03	

CPU time since last call: 0.280 seconds.

Total CPU time: 0.280 seconds.

Current dynamic memory usage = 319488,
Dynamic memory limit = -18809392.

